.INCLUDE SpecialDevices.md
.lib "C:\Users\i140420\Desktop\Kamran_VLSI_11_17-4\Generic_025.lib" TT
.tran 10n 100n

v1 A Gnd PULSE (0 5 0 1n 1n 30n 80n)
v2 B Gnd PULSE (0 5 5n 1n 1n 30n 70n)
v3 C Gnd PULSE (0 5 0 1n 1n 30n 70n)
v4 Vdd Gnd 5
.print tran v(A,Gnd) v(B,Gnd) v(C,Gnd) v(X,Gnd) v(Y,Gnd) v(Z,Gnd)